<?xml version="1.0" encoding="UTF-8"?>

<!-- generated on Thu Nov 12 21:20:51 2020 by Eclipse SUMO netconvert Version 1.6.0
<configuration xmlns:xsi="http://www.w3.org/2001/XMLSchema-instance" xsi:noNamespaceSchemaLocation="http://sumo.dlr.de/xsd/netconvertConfiguration.xsd">

    <input>
        <sumo-net-file value="data/tts_sumo/tost.net.xml"/>
    </input>

    <output>
        <output-file value="data/tts_sumo/mini_tost.net.xml"/>
        <output.street-names value="true"/>
    </output>

    <processing>
        <geometry.min-radius.fix.railways value="false"/>
        <geometry.max-grade.fix value="false"/>
        <offset.disable-normalization value="true"/>
        <lefthand value="false"/>
    </processing>

    <edge_removal>
        <keep-edges.input-file value="data/tts_sumo/mini_edges_to_keep.txt"/>
    </edge_removal>

    <junctions>
        <no-turnarounds value="true"/>
        <junctions.corner-detail value="5"/>
        <junctions.limit-turn-speed value="5.5"/>
        <rectangular-lane-cut value="false"/>
    </junctions>

    <pedestrian>
        <walkingareas value="false"/>
    </pedestrian>

    <report>
        <aggregate-warnings value="5"/>
    </report>

</configuration>
-->

<net version="1.6" junctionCornerDetail="5" limitTurnSpeed="5.50" xmlns:xsi="http://www.w3.org/2001/XMLSchema-instance" xsi:noNamespaceSchemaLocation="http://sumo.dlr.de/xsd/net_file.xsd">

    <location netOffset="-627557.73,-4832270.35" convBoundary="1467.63,493.17,4651.74,2798.09" origBoundary="-79.455123,43.622472,-79.291153,43.699379" projParameter="+proj=utm +zone=17 +ellps=WGS84 +datum=WGS84 +units=m +no_defs"/>

    <edge id=":1114204776_0" function="internal">
        <lane id=":1114204776_0_0" index="0" disallow="tram rail_urban rail rail_electric rail_fast ship" speed="11.11" length="7.72" shape="2133.15,968.29 2130.81,968.21 2129.17,968.49 2127.55,968.70 2125.24,968.41"/>
        <lane id=":1114204776_0_1" index="1" disallow="tram rail_urban rail rail_electric rail_fast ship" speed="11.11" length="7.72" shape="2133.60,965.12 2131.34,965.05 2129.77,965.34 2128.21,965.57 2125.99,965.29"/>
        <lane id=":1114204776_0_2" index="2" disallow="tram rail_urban rail rail_electric rail_fast ship" speed="11.11" length="7.72" shape="2133.60,965.12 2131.48,964.57 2130.15,963.79 2128.82,962.94 2126.74,962.18"/>
    </edge>
    <edge id=":1280002692_0" function="internal">
        <lane id=":1280002692_0_0" index="0" disallow="tram rail_urban rail rail_electric rail_fast ship" speed="11.11" length="8.06" shape="1972.91,903.18 1975.08,904.07 1976.71,904.30 1978.37,904.50 1980.59,905.29"/>
        <lane id=":1280002692_0_1" index="1" disallow="tram rail_urban rail rail_electric rail_fast ship" speed="11.11" length="8.06" shape="1972.91,903.18 1974.88,904.53 1976.03,905.75 1977.20,906.94 1979.22,908.18"/>
    </edge>
    <edge id=":1306295999_0" function="internal">
        <lane id=":1306295999_0_0" index="0" disallow="tram rail_urban rail rail_electric rail_fast ship" speed="3.65" length="4.67" shape="1980.06,772.92 1981.18,772.01 1982.06,771.86 1982.71,772.48 1983.12,773.86"/>
    </edge>
    <edge id=":1363831220_0" function="internal">
        <lane id=":1363831220_0_0" index="0" disallow="tram rail_urban rail rail_electric rail_fast ship" speed="12.50" length="25.98" shape="3474.23,1270.65 3472.44,1277.33 3471.49,1283.40 3471.58,1289.48 3472.87,1296.20"/>
    </edge>
    <edge id=":1363831220_1" function="internal">
        <lane id=":1363831220_1_0" index="0" disallow="tram rail_urban rail rail_electric rail_fast ship" speed="11.11" length="27.50" shape="3474.23,1270.65 3465.85,1296.91"/>
        <lane id=":1363831220_1_1" index="1" disallow="tram rail_urban rail rail_electric rail_fast ship" speed="11.11" length="27.50" shape="3471.17,1269.73 3462.82,1295.87"/>
    </edge>
    <edge id=":1363831220_3" function="internal">
        <lane id=":1363831220_3_0" index="0" disallow="tram rail_urban rail rail_electric rail_fast ship" speed="13.89" length="20.28" shape="3469.09,1276.27 3472.87,1296.20"/>
        <lane id=":1363831220_3_1" index="1" disallow="tram rail_urban rail rail_electric rail_fast ship" speed="13.89" length="20.28" shape="3466.00,1277.13 3469.78,1297.04"/>
    </edge>
    <edge id=":1363831220_5" function="internal">
        <lane id=":1363831220_5_0" index="0" disallow="tram rail_urban rail rail_electric rail_fast ship" speed="12.50" length="18.37" shape="3462.92,1277.98 3464.32,1283.22 3464.85,1286.98 3464.40,1290.72 3462.82,1295.87"/>
    </edge>
    <edge id=":1363831225_0" function="internal">
        <lane id=":1363831225_0_0" index="0" allow="private emergency authority army vip passenger hov taxi bus coach delivery truck trailer motorcycle evehicle custom1 custom2" speed="7.16" length="7.80" shape="3431.78,1415.21 3429.50,1415.54 3427.69,1416.28 3426.36,1417.43 3425.49,1418.99"/>
    </edge>
    <edge id=":1363831225_1" function="internal">
        <lane id=":1363831225_1_0" index="0" disallow="tram rail_urban rail rail_electric rail_fast ship" speed="11.11" length="8.77" shape="3428.40,1410.70 3425.49,1418.99"/>
        <lane id=":1363831225_1_1" index="1" disallow="tram rail_urban rail rail_electric rail_fast ship" speed="11.11" length="8.77" shape="3425.37,1409.65 3422.48,1417.91"/>
    </edge>
    <edge id=":1431131579_0" function="internal">
        <lane id=":1431131579_0_0" index="0" disallow="tram rail_urban rail rail_electric rail_fast ship" speed="3.65" length="4.67" shape="1586.56,1023.73 1585.73,1022.55 1585.65,1021.66 1586.31,1021.06 1587.72,1020.75"/>
    </edge>
    <edge id=":145488868_0" function="internal">
        <lane id=":145488868_0_0" index="0" disallow="tram rail_urban rail rail_electric rail_fast ship" speed="6.79" length="9.75" shape="2784.56,1159.70 2781.99,1159.27 2779.86,1159.78 2778.18,1161.26 2776.93,1163.68"/>
    </edge>
    <edge id=":145488868_1" function="internal">
        <lane id=":145488868_1_0" index="0" disallow="tram rail_urban rail rail_electric rail_fast ship" speed="11.11" length="21.22" shape="2784.56,1159.70 2764.30,1153.55"/>
        <lane id=":145488868_1_1" index="1" disallow="tram rail_urban rail rail_electric rail_fast ship" speed="11.11" length="21.22" shape="2785.55,1156.66 2765.21,1150.48"/>
    </edge>
    <edge id=":145488868_3" function="internal">
        <lane id=":145488868_3_0" index="0" disallow="tram rail_urban rail rail_electric rail_fast ship" speed="9.32" length="5.16" shape="2785.55,1156.66 2782.39,1154.64 2781.80,1153.36"/>
    </edge>
    <edge id=":145488868_4" function="internal">
        <lane id=":145488868_4_0" index="0" disallow="tram rail_urban rail rail_electric rail_fast ship" speed="3.65" length="2.47" shape="2785.55,1156.66 2784.66,1155.53 2784.53,1154.64 2784.62,1154.55"/>
    </edge>
    <edge id=":145488868_18" function="internal">
        <lane id=":145488868_18_0" index="0" disallow="tram rail_urban rail rail_electric rail_fast ship" speed="9.32" length="14.09" shape="2781.80,1153.36 2780.76,1151.13 2780.64,1146.13 2782.04,1139.66"/>
    </edge>
    <edge id=":145488868_19" function="internal">
        <lane id=":145488868_19_0" index="0" disallow="tram rail_urban rail rail_electric rail_fast ship" speed="3.65" length="2.20" shape="2784.62,1154.55 2785.16,1154.01 2786.55,1153.62"/>
    </edge>
    <edge id=":145488868_5" function="internal">
        <lane id=":145488868_5_0" index="0" disallow="tram rail_urban rail rail_electric rail_fast ship" speed="7.28" length="11.33" shape="2785.06,1140.73 2784.29,1144.43 2784.45,1147.31 2785.53,1149.36 2787.54,1150.58"/>
    </edge>
    <edge id=":145488868_6" function="internal">
        <lane id=":145488868_6_0" index="0" disallow="tram rail_urban rail rail_electric rail_fast ship" speed="13.89" length="24.35" shape="2785.06,1140.73 2776.93,1163.68"/>
    </edge>
    <edge id=":145488868_7" function="internal">
        <lane id=":145488868_7_0" index="0" disallow="tram rail_urban rail rail_electric rail_fast ship" speed="10.55" length="11.90" shape="2785.06,1140.73 2782.23,1146.64 2778.15,1150.09"/>
    </edge>
    <edge id=":145488868_8" function="internal">
        <lane id=":145488868_8_0" index="0" disallow="tram rail_urban rail rail_electric rail_fast ship" speed="3.65" length="2.49" shape="2785.06,1140.73 2783.90,1141.59 2783.01,1141.70 2782.91,1141.59"/>
    </edge>
    <edge id=":145488868_20" function="internal">
        <lane id=":145488868_20_0" index="0" disallow="tram rail_urban rail rail_electric rail_fast ship" speed="10.55" length="13.22" shape="2778.15,1150.09 2777.98,1150.24 2772.30,1151.52 2765.21,1150.48"/>
    </edge>
    <edge id=":145488868_21" function="internal">
        <lane id=":145488868_21_0" index="0" disallow="tram rail_urban rail rail_electric rail_fast ship" speed="3.65" length="2.18" shape="2782.91,1141.59 2782.39,1141.06 2782.04,1139.66"/>
    </edge>
    <edge id=":145488868_9" function="internal">
        <lane id=":145488868_9_0" index="0" disallow="tram rail_urban rail rail_electric rail_fast ship" speed="8.38" length="15.46" shape="2767.91,1141.26 2773.51,1142.49 2777.74,1142.63 2780.58,1141.69 2782.04,1139.66"/>
    </edge>
    <edge id=":145488868_10" function="internal">
        <lane id=":145488868_10_0" index="0" disallow="tram rail_urban rail rail_electric rail_fast ship" speed="11.11" length="21.76" shape="2767.91,1141.26 2774.05,1143.52 2778.08,1145.86 2781.94,1148.23 2787.54,1150.58"/>
        <lane id=":145488868_10_1" index="1" disallow="tram rail_urban rail rail_electric rail_fast ship" speed="11.11" length="21.76" shape="2767.01,1144.33 2773.12,1146.58 2777.12,1148.91 2780.95,1151.27 2786.55,1153.62"/>
    </edge>
    <edge id=":145488868_12" function="internal">
        <lane id=":145488868_12_0" index="0" disallow="tram rail_urban rail rail_electric rail_fast ship" speed="9.73" length="9.03" shape="2766.11,1147.41 2772.43,1150.01 2774.05,1151.49"/>
    </edge>
    <edge id=":145488868_13" function="internal">
        <lane id=":145488868_13_0" index="0" disallow="tram rail_urban rail rail_electric rail_fast ship" speed="3.65" length="2.34" shape="2766.11,1147.41 2767.03,1148.51 2767.19,1149.39"/>
    </edge>
    <edge id=":145488868_22" function="internal">
        <lane id=":145488868_22_0" index="0" disallow="tram rail_urban rail rail_electric rail_fast ship" speed="9.73" length="13.52" shape="2774.05,1151.49 2776.35,1153.60 2777.85,1158.15 2776.93,1163.68"/>
    </edge>
    <edge id=":145488868_23" function="internal">
        <lane id=":145488868_23_0" index="0" disallow="tram rail_urban rail rail_electric rail_fast ship" speed="3.65" length="2.34" shape="2767.19,1149.39 2766.58,1150.05 2765.21,1150.48"/>
    </edge>
    <edge id=":145488868_14" function="internal">
        <lane id=":145488868_14_0" index="0" disallow="tram rail_urban rail rail_electric rail_fast ship" speed="6.37" length="9.04" shape="2767.88,1160.49 2768.37,1158.03 2767.94,1156.05 2766.58,1154.56 2764.30,1153.55"/>
    </edge>
    <edge id=":145488868_15" function="internal">
        <lane id=":145488868_15_0" index="0" disallow="tram rail_urban rail rail_electric rail_fast ship" speed="13.89" length="24.62" shape="2770.90,1161.56 2774.16,1153.92 2777.46,1148.06 2780.27,1143.47 2782.04,1139.66"/>
    </edge>
    <edge id=":145488868_16" function="internal">
        <lane id=":145488868_16_0" index="0" disallow="tram rail_urban rail rail_electric rail_fast ship" speed="8.89" length="8.20" shape="2773.92,1162.62 2776.26,1157.64 2778.08,1155.65"/>
    </edge>
    <edge id=":145488868_17" function="internal">
        <lane id=":145488868_17_0" index="0" disallow="tram rail_urban rail rail_electric rail_fast ship" speed="3.65" length="2.34" shape="2773.92,1162.62 2775.07,1161.75 2775.96,1161.64"/>
    </edge>
    <edge id=":145488868_24" function="internal">
        <lane id=":145488868_24_0" index="0" disallow="tram rail_urban rail rail_electric rail_fast ship" speed="8.89" length="9.26" shape="2778.08,1155.65 2779.15,1154.48 2782.57,1153.14 2786.55,1153.62"/>
    </edge>
    <edge id=":145488868_25" function="internal">
        <lane id=":145488868_25_0" index="0" disallow="tram rail_urban rail rail_electric rail_fast ship" speed="3.65" length="2.34" shape="2775.96,1161.64 2776.58,1162.28 2776.93,1163.68"/>
    </edge>
    <edge id=":145488869_0" function="internal">
        <lane id=":145488869_0_0" index="0" disallow="tram rail_urban rail rail_electric rail_fast ship" speed="13.89" length="8.74" shape="2763.08,1222.73 2761.85,1224.89 2760.33,1226.00 2758.81,1227.11 2757.60,1229.28"/>
    </edge>
    <edge id=":145488869_1" function="internal">
        <lane id=":145488869_1_0" index="0" disallow="tram rail_urban rail rail_electric rail_fast ship" speed="13.89" length="8.84" shape="2751.50,1227.35 2752.72,1225.15 2754.24,1224.02 2755.77,1222.89 2757.01,1220.69"/>
    </edge>
    <edge id=":145493903_0" function="internal">
        <lane id=":145493903_0_0" index="0" disallow="tram rail_urban rail rail_electric rail_fast ship" speed="6.27" length="9.08" shape="3668.31,1193.50 3665.87,1192.66 3663.86,1192.83 3662.25,1194.01 3661.06,1196.19"/>
    </edge>
    <edge id=":145493903_1" function="internal">
        <lane id=":145493903_1_0" index="0" disallow="tram rail_urban rail rail_electric rail_fast ship" speed="13.89" length="14.40" shape="3668.31,1193.50 3655.47,1186.96"/>
        <lane id=":145493903_1_1" index="1" disallow="tram rail_urban rail rail_electric rail_fast ship" speed="13.89" length="14.40" shape="3669.76,1190.64 3656.93,1184.11"/>
    </edge>
    <edge id=":145493903_3" function="internal">
        <lane id=":145493903_3_0" index="0" disallow="tram rail_urban rail rail_electric rail_fast ship" speed="3.65" length="2.34" shape="3669.76,1190.64 3669.05,1189.39 3669.05,1188.49"/>
    </edge>
    <edge id=":145493903_11" function="internal">
        <lane id=":145493903_11_0" index="0" disallow="tram rail_urban rail rail_electric rail_fast ship" speed="3.65" length="2.34" shape="3669.05,1188.49 3669.77,1187.96 3671.20,1187.79"/>
    </edge>
    <edge id=":145493903_4" function="internal">
        <lane id=":145493903_4_0" index="0" disallow="tram rail_urban rail rail_electric rail_fast ship" speed="13.89" length="14.38" shape="3659.84,1178.41 3672.65,1184.94"/>
        <lane id=":145493903_4_1" index="1" disallow="tram rail_urban rail rail_electric rail_fast ship" speed="13.89" length="14.38" shape="3658.39,1181.26 3671.20,1187.79"/>
    </edge>
    <edge id=":145493903_6" function="internal">
        <lane id=":145493903_6_0" index="0" disallow="tram rail_urban rail rail_electric rail_fast ship" speed="9.04" length="4.84" shape="3658.39,1181.26 3661.12,1183.51 3661.63,1184.71"/>
    </edge>
    <edge id=":145493903_7" function="internal">
        <lane id=":145493903_7_0" index="0" disallow="tram rail_urban rail rail_electric rail_fast ship" speed="3.65" length="2.34" shape="3658.39,1181.26 3659.09,1182.52 3659.08,1183.41"/>
    </edge>
    <edge id=":145493903_12" function="internal">
        <lane id=":145493903_12_0" index="0" disallow="tram rail_urban rail rail_electric rail_fast ship" speed="9.04" length="11.85" shape="3661.63,1184.71 3662.48,1186.75 3662.46,1190.97 3661.06,1196.19"/>
    </edge>
    <edge id=":145493903_13" function="internal">
        <lane id=":145493903_13_0" index="0" disallow="tram rail_urban rail rail_electric rail_fast ship" speed="3.65" length="2.34" shape="3659.08,1183.41 3658.36,1183.94 3656.93,1184.11"/>
    </edge>
    <edge id=":145493903_8" function="internal">
        <lane id=":145493903_8_0" index="0" disallow="tram rail_urban rail rail_electric rail_fast ship" speed="6.90" length="9.33" shape="3658.12,1194.93 3658.72,1192.34 3658.47,1190.15 3657.39,1188.35 3655.47,1186.96"/>
    </edge>
    <edge id=":145493903_9" function="internal">
        <lane id=":145493903_9_0" index="0" disallow="tram rail_urban rail rail_electric rail_fast ship" speed="8.45" length="17.42" shape="3658.12,1194.93 3660.53,1190.12 3663.51,1187.33 3667.07,1186.55 3671.20,1187.79"/>
    </edge>
    <edge id=":145493903_10" function="internal">
        <lane id=":145493903_10_0" index="0" disallow="tram rail_urban rail rail_electric rail_fast ship" speed="3.65" length="4.68" shape="3658.12,1194.93 3659.33,1194.14 3660.22,1194.09 3660.80,1194.77 3661.06,1196.19"/>
    </edge>
    <edge id=":145494311_0" function="internal">
        <lane id=":145494311_0_0" index="0" disallow="tram rail_urban rail rail_electric rail_fast ship" speed="13.89" length="6.33" shape="3587.71,1389.72 3587.03,1391.48 3586.55,1392.68 3586.16,1393.90 3585.74,1395.73"/>
    </edge>
    <edge id=":145494311_1" function="internal">
        <lane id=":145494311_1_0" index="0" disallow="tram rail_urban rail rail_electric rail_fast ship" speed="3.65" length="2.34" shape="3587.71,1389.72 3586.54,1390.57 3585.65,1390.67"/>
    </edge>
    <edge id=":145494311_4" function="internal">
        <lane id=":145494311_4_0" index="0" disallow="tram rail_urban rail rail_electric rail_fast ship" speed="3.65" length="2.34" shape="3585.65,1390.67 3585.04,1390.01 3584.71,1388.61"/>
    </edge>
    <edge id=":145494311_2" function="internal">
        <lane id=":145494311_2_0" index="0" disallow="tram rail_urban rail rail_electric rail_fast ship" speed="13.89" length="4.27" shape="3582.74,1392.38 3583.42,1391.31 3583.87,1390.57 3584.25,1389.79 3584.71,1388.61"/>
    </edge>
    <edge id=":145494311_3" function="internal">
        <lane id=":145494311_3_0" index="0" disallow="tram rail_urban rail rail_electric rail_fast ship" speed="5.55" length="12.13" shape="3582.74,1392.38 3585.00,1389.30 3586.25,1388.83 3586.50,1390.98 3585.74,1395.73"/>
    </edge>
    <edge id=":145494316_0" function="internal">
        <lane id=":145494316_0_0" index="0" disallow="tram rail_urban rail rail_electric rail_fast ship" speed="10.87" length="9.21" shape="3587.54,1412.75 3588.68,1415.25 3589.55,1417.03 3590.81,1418.39 3593.13,1419.63"/>
    </edge>
    <edge id=":145494316_1" function="internal">
        <lane id=":145494316_1_0" index="0" disallow="tram rail_urban rail rail_electric rail_fast ship" speed="13.89" length="9.17" shape="3584.82,1415.74 3593.13,1419.63"/>
    </edge>
    <edge id=":145495966_0" function="internal">
        <lane id=":145495966_0_0" index="0" disallow="tram rail_urban rail rail_electric rail_fast ship" speed="6.54" length="9.13" shape="3801.20,1261.11 3798.84,1260.30 3796.79,1260.45 3795.04,1261.55 3793.59,1263.60"/>
    </edge>
    <edge id=":145495966_1" function="internal">
        <lane id=":145495966_1_0" index="0" disallow="tram rail_urban rail rail_electric rail_fast ship" speed="13.89" length="14.40" shape="3801.20,1261.11 3788.38,1254.56"/>
        <lane id=":145495966_1_1" index="1" disallow="tram rail_urban rail rail_electric rail_fast ship" speed="13.89" length="14.40" shape="3802.66,1258.26 3789.83,1251.71"/>
    </edge>
    <edge id=":145495966_3" function="internal">
        <lane id=":145495966_3_0" index="0" disallow="tram rail_urban rail rail_electric rail_fast ship" speed="3.65" length="2.34" shape="3802.66,1258.26 3801.95,1257.00 3801.96,1256.11"/>
    </edge>
    <edge id=":145495966_11" function="internal">
        <lane id=":145495966_11_0" index="0" disallow="tram rail_urban rail rail_electric rail_fast ship" speed="3.65" length="2.34" shape="3801.96,1256.11 3802.68,1255.57 3804.11,1255.41"/>
    </edge>
    <edge id=":145495966_4" function="internal">
        <lane id=":145495966_4_0" index="0" disallow="tram rail_urban rail rail_electric rail_fast ship" speed="13.89" length="14.39" shape="3792.74,1246.02 3805.56,1252.56"/>
        <lane id=":145495966_4_1" index="1" disallow="tram rail_urban rail rail_electric rail_fast ship" speed="13.89" length="14.39" shape="3791.29,1248.86 3804.11,1255.41"/>
    </edge>
    <edge id=":145495966_6" function="internal">
        <lane id=":145495966_6_0" index="0" disallow="tram rail_urban rail rail_electric rail_fast ship" speed="8.67" length="5.24" shape="3791.29,1248.86 3794.36,1251.28 3794.89,1252.50"/>
    </edge>
    <edge id=":145495966_7" function="internal">
        <lane id=":145495966_7_0" index="0" disallow="tram rail_urban rail rail_electric rail_fast ship" speed="3.65" length="2.34" shape="3791.29,1248.86 3791.99,1250.12 3791.98,1251.02"/>
    </edge>
    <edge id=":145495966_12" function="internal">
        <lane id=":145495966_12_0" index="0" disallow="tram rail_urban rail rail_electric rail_fast ship" speed="8.67" length="11.65" shape="3794.89,1252.50 3795.77,1254.54 3795.51,1258.65 3793.59,1263.60"/>
    </edge>
    <edge id=":145495966_13" function="internal">
        <lane id=":145495966_13_0" index="0" disallow="tram rail_urban rail rail_electric rail_fast ship" speed="3.65" length="2.34" shape="3791.98,1251.02 3791.26,1251.55 3789.83,1251.71"/>
    </edge>
    <edge id=":145495966_8" function="internal">
        <lane id=":145495966_8_0" index="0" disallow="tram rail_urban rail rail_electric rail_fast ship" speed="6.50" length="9.02" shape="3790.76,1262.10 3791.58,1259.75 3791.45,1257.71 3790.38,1255.98 3788.38,1254.56"/>
    </edge>
    <edge id=":145495966_9" function="internal">
        <lane id=":145495966_9_0" index="0" disallow="tram rail_urban rail rail_electric rail_fast ship" speed="8.69" length="16.90" shape="3790.76,1262.10 3793.66,1257.67 3796.84,1255.08 3800.33,1254.32 3804.11,1255.41"/>
    </edge>
    <edge id=":145495966_10" function="internal">
        <lane id=":145495966_10_0" index="0" disallow="tram rail_urban rail rail_electric rail_fast ship" speed="3.65" length="4.67" shape="3790.76,1262.10 3792.03,1261.41 3792.93,1261.44 3793.45,1262.16 3793.59,1263.60"/>
    </edge>
    <edge id=":145496249_0" function="internal">
        <lane id=":145496249_0_0" index="0" disallow="tram rail_urban rail rail_electric rail_fast ship" speed="10.71" length="3.69" shape="3722.34,1444.62 3722.01,1445.66 3721.86,1446.40 3721.87,1447.16 3721.99,1448.24"/>
    </edge>
    <edge id=":145496249_1" function="internal">
        <lane id=":145496249_1_0" index="0" disallow="tram rail_urban rail rail_electric rail_fast ship" speed="3.65" length="2.34" shape="3722.34,1444.62 3721.20,1445.51 3720.32,1445.64"/>
    </edge>
    <edge id=":145496249_4" function="internal">
        <lane id=":145496249_4_0" index="0" disallow="tram rail_urban rail rail_electric rail_fast ship" speed="3.65" length="2.34" shape="3720.32,1445.64 3719.68,1445.01 3719.30,1443.62"/>
    </edge>
    <edge id=":145496249_2" function="internal">
        <lane id=":145496249_2_0" index="0" disallow="tram rail_urban rail rail_electric rail_fast ship" speed="13.89" length="4.62" shape="3717.29,1447.74 3718.11,1446.65 3718.56,1445.83 3718.88,1444.93 3719.30,1443.62"/>
    </edge>
    <edge id=":145496249_3" function="internal">
        <lane id=":145496249_3_0" index="0" disallow="tram rail_urban rail rail_electric rail_fast ship" speed="4.92" length="4.06" shape="3717.29,1447.74 3719.08,1445.89 3720.46,1445.35"/>
    </edge>
    <edge id=":145496249_5" function="internal">
        <lane id=":145496249_5_0" index="0" disallow="tram rail_urban rail rail_electric rail_fast ship" speed="4.92" length="3.43" shape="3720.46,1445.35 3721.43,1446.13 3721.99,1448.24"/>
    </edge>
    <edge id=":145496252_0" function="internal">
        <lane id=":145496252_0_0" index="0" disallow="tram rail_urban rail rail_electric rail_fast ship" speed="11.83" length="11.73" shape="3725.75,1459.82 3727.54,1462.39 3729.37,1464.00 3731.73,1465.11 3735.11,1466.18"/>
    </edge>
    <edge id=":145496252_1" function="internal">
        <lane id=":145496252_1_0" index="0" disallow="tram rail_urban rail rail_electric rail_fast ship" speed="13.89" length="12.15" shape="3723.07,1464.45 3726.02,1465.52 3728.26,1466.70 3730.69,1467.95 3734.20,1469.25"/>
    </edge>
    <edge id=":145496461_0" function="internal">
        <lane id=":145496461_0_0" index="0" disallow="tram rail_urban rail rail_electric rail_fast ship" speed="13.89" length="9.77" shape="3695.52,1456.63 3698.26,1457.22 3700.21,1457.01 3702.18,1456.33 3704.98,1455.50"/>
    </edge>
    <edge id=":145496461_1" function="internal">
        <lane id=":145496461_1_0" index="0" disallow="tram rail_urban rail rail_electric rail_fast ship" speed="13.89" length="9.75" shape="3695.52,1456.63 3704.89,1459.34"/>
    </edge>
    <edge id=":145497743_0" function="internal">
        <lane id=":145497743_0_0" index="0" disallow="tram rail_urban rail rail_electric rail_fast ship" speed="6.63" length="9.26" shape="4019.63,1547.01 4019.24,1549.57 4019.72,1551.64 4021.07,1553.22 4023.29,1554.30"/>
    </edge>
    <edge id=":145497743_1" function="internal">
        <lane id=":145497743_1_0" index="0" disallow="tram rail_urban rail rail_electric rail_fast ship" speed="3.65" length="4.67" shape="4019.63,1547.01 4018.52,1547.93 4017.64,1548.09 4016.99,1547.48 4016.56,1546.11"/>
    </edge>
    <edge id=":145497743_2" function="internal">
        <lane id=":145497743_2_0" index="0" disallow="tram rail_urban rail rail_electric rail_fast ship" speed="6.37" length="9.04" shape="4009.59,1549.62 4012.04,1550.13 4014.01,1549.72 4015.52,1548.38 4016.56,1546.11"/>
    </edge>
    <edge id=":145497743_3" function="internal">
        <lane id=":145497743_3_0" index="0" disallow="tram rail_urban rail rail_electric rail_fast ship" speed="13.89" length="14.62" shape="4009.59,1549.62 4023.29,1554.30"/>
        <lane id=":145497743_3_1" index="1" disallow="tram rail_urban rail rail_electric rail_fast ship" speed="13.89" length="14.62" shape="4008.49,1552.62 4022.32,1557.35"/>
        <lane id=":145497743_3_2" index="2" disallow="tram rail_urban rail rail_electric rail_fast ship" speed="13.89" length="14.62" shape="4007.39,1555.63 4021.36,1560.40"/>
    </edge>
    <edge id=":1543521502_0" function="internal">
        <lane id=":1543521502_0_0" index="0" disallow="tram rail_urban rail rail_electric rail_fast ship" speed="15.28" length="8.81" shape="2010.74,750.25 2008.47,749.18 2007.24,747.75 2006.00,746.33 2003.73,745.28"/>
        <lane id=":1543521502_0_1" index="1" disallow="tram rail_urban rail rail_electric rail_fast ship" speed="15.28" length="8.81" shape="2011.50,747.14 2009.22,746.07 2007.98,744.64 2006.73,743.21 2004.45,742.17"/>
        <lane id=":1543521502_0_2" index="2" disallow="tram rail_urban rail rail_electric rail_fast ship" speed="15.28" length="8.81" shape="2012.25,744.03 2009.96,742.96 2008.72,741.53 2007.47,740.10 2005.18,739.05"/>
    </edge>
    <edge id=":1550992510_0" function="internal">
        <lane id=":1550992510_0_0" index="0" disallow="tram rail_urban rail rail_electric rail_fast ship" speed="6.54" length="9.01" shape="2198.63,1980.16 2196.22,1979.78 2194.25,1980.28 2192.72,1981.65 2191.63,1983.89"/>
    </edge>
    <edge id=":1550992510_1" function="internal">
        <lane id=":1550992510_1_0" index="0" disallow="tram rail_urban rail rail_electric rail_fast ship" speed="11.11" length="14.59" shape="2198.63,1980.16 2184.69,1975.86"/>
        <lane id=":1550992510_1_1" index="1" disallow="tram rail_urban rail rail_electric rail_fast ship" speed="11.11" length="14.59" shape="2199.57,1977.10 2185.63,1972.80"/>
    </edge>
    <edge id=":1550992510_3" function="internal">
        <lane id=":1550992510_3_0" index="0" disallow="tram rail_urban rail rail_electric rail_fast ship" speed="8.70" length="5.41" shape="2199.57,1977.10 2196.00,1975.21 2195.23,1974.09"/>
    </edge>
    <edge id=":1550992510_4" function="internal">
        <lane id=":1550992510_4_0" index="0" disallow="tram rail_urban rail rail_electric rail_fast ship" speed="3.65" length="2.34" shape="2199.57,1977.10 2198.66,1975.98 2198.51,1975.10"/>
    </edge>
    <edge id=":1550992510_18" function="internal">
        <lane id=":1550992510_18_0" index="0" disallow="tram rail_urban rail rail_electric rail_fast ship" speed="8.70" length="11.66" shape="2195.23,1974.09 2193.96,1972.22 2193.46,1968.14 2194.50,1962.96"/>
    </edge>
    <edge id=":1550992510_19" function="internal">
        <lane id=":1550992510_19_0" index="0" disallow="tram rail_urban rail rail_electric rail_fast ship" speed="3.65" length="2.34" shape="2198.51,1975.10 2199.13,1974.45 2200.52,1974.04"/>
    </edge>
    <edge id=":1550992510_5" function="internal">
        <lane id=":1550992510_5_0" index="0" disallow="tram rail_urban rail rail_electric rail_fast ship" speed="6.57" length="9.27" shape="2197.57,1963.86 2197.18,1966.33 2197.69,1968.34 2199.12,1969.89 2201.46,1970.98"/>
    </edge>
    <edge id=":1550992510_6" function="internal">
        <lane id=":1550992510_6_0" index="0" disallow="tram rail_urban rail rail_electric rail_fast ship" speed="13.89" length="20.89" shape="2197.57,1963.86 2191.63,1983.89"/>
    </edge>
    <edge id=":1550992510_7" function="internal">
        <lane id=":1550992510_7_0" index="0" disallow="tram rail_urban rail rail_electric rail_fast ship" speed="8.70" length="7.65" shape="2197.57,1963.86 2195.46,1968.73 2193.93,1970.50"/>
    </edge>
    <edge id=":1550992510_8" function="internal">
        <lane id=":1550992510_8_0" index="0" disallow="tram rail_urban rail rail_electric rail_fast ship" speed="3.65" length="2.34" shape="2197.57,1963.86 2196.47,1964.78 2195.59,1964.94"/>
    </edge>
    <edge id=":1550992510_20" function="internal">
        <lane id=":1550992510_20_0" index="0" disallow="tram rail_urban rail rail_electric rail_fast ship" speed="8.70" length="9.21" shape="2193.93,1970.50 2192.77,1971.85 2189.49,1973.20 2185.63,1972.80"/>
    </edge>
    <edge id=":1550992510_21" function="internal">
        <lane id=":1550992510_21_0" index="0" disallow="tram rail_urban rail rail_electric rail_fast ship" speed="3.65" length="2.34" shape="2195.59,1964.94 2194.93,1964.33 2194.50,1962.96"/>
    </edge>
    <edge id=":1550992510_9" function="internal">