<?xml version="1.0" encoding="UTF-8"?>

<!-- generated on Thu May 14 18:49:21 2020 by Eclipse SUMO duarouter Version 1.6.0
<configuration xmlns:xsi="http://www.w3.org/2001/XMLSchema-instance" xsi:noNamespaceSchemaLocation="http://sumo.dlr.de/xsd/duarouterConfiguration.xsd">

    <input>
        <net-file value="/home/danial/sumo/tools/2020-05-14-18-48-29/osm.net.xml"/>
        <route-files value="/home/danial/sumo/tools/2020-05-14-18-48-29/osm.passenger.trips.xml"/>
    </input>

    <output>
        <output-file value="/home/danial/sumo/tools/2020-05-14-18-48-29/osm.passenger.trips.xml.tmp"/>
        <write-trips value="true"/>
    </output>

    <time>
        <begin value="0"/>
        <end value="3600"/>
    </time>

    <report>
        <no-warnings value="true"/>
        <ignore-errors value="true"/>
        <no-step-log value="true"/>
    </report>

</configuration>
-->

<routes xmlns:xsi="http://www.w3.org/2001/XMLSchema-instance" xsi:noNamespaceSchemaLocation="http://sumo.dlr.de/xsd/routes_file.xsd">
    <vType id="veh_passenger" vClass="passenger"/>
    <trip id="veh0" type="veh_passenger" depart="0.00" departLane="best" from="31733044#0" to="-204318936#2"/>
    <trip id="veh1" type="veh_passenger" depart="0.37" departLane="best" from="-4835155#2" to="-4298417#0"/>
    <trip id="veh2" type="veh_passenger" depart="0.75" departLane="best" from="41166503#2" to="358965490#0"/>
    <trip id="veh3" type="veh_passenger" depart="1.12" departLane="best" from="5179253#9" to="-256259849"/>
    <trip id="veh4" type="veh_passenger" depart="1.50" departLane="best" departSpeed="max" from="157332776#0" to="-216566628"/>
    <trip id="veh5" type="veh_passenger" depart="1.87" departLane="best" from="-42966001#8" to="236611343#0"/>
    <trip id="veh6" type="veh_passenger" depart="2.25" departLane="best" from="-207223272#11" to="-41112805#4"/>
    <trip id="veh7" type="veh_passenger" depart="2.62" departLane="best" from="33028610#0" to="25795349#0"/>
    <trip id="veh9" type="veh_passenger" depart="3.37" departLane="best" departSpeed="max" from="449338165" to="-133595611"/>
    <trip id="veh10" type="veh_passenger" depart="3.75" departLane="best" from="446996495" to="3996268#11"/>
    <trip id="veh11" type="veh_passenger" depart="4.12" departLane="best" from="-5941200#2" to="-33910428#2"/>
    <trip id="veh12" type="veh_passenger" depart="4.50" departLane="best" from="683261308#0" to="-64370254#5"/>
    <trip id="veh13" type="veh_passenger" depart="4.87" departLane="best" departSpeed="max" from="-25846414#1" to="-263506114#1"/>
    <trip id="veh14" type="veh_passenger" depart="5.25" departLane="best" departSpeed="max" from="4847591#0" to="30674827#0"/>
    <trip id="veh15" type="veh_passenger" depart="5.62" departLane="best" from="448090102#0" to="41789175#0"/>
    <trip id="veh16" type="veh_passenger" depart="6.00" departLane="best" from="24221167#0" to="777511292#0"/>
    <trip id="veh17" type="veh_passenger" depart="6.37" departLane="best" from="-83748395#1" to="259669510#17"/>
    <trip id="veh18" type="veh_passenger" depart="6.75" departLane="best" from="4652077#0" to="312134112#0"/>
    <trip id="veh19" type="veh_passenger" depart="7.12" departLane="best" from="4958320#0" to="28823581#7"/>
    <trip id="veh20" type="veh_passenger" depart="7.50" departLane="best" from="36924905#0" to="-222151426#1"/>
    <trip id="veh21" type="veh_passenger" depart="7.87" departLane="best" from="-435639570#1" to="-5000915"/>
    <trip id="veh22" type="veh_passenger" depart="8.25" departLane="best" departSpeed="max" from="-24221166" to="-437978077#0"/>
    <trip id="veh23" type="veh_passenger" depart="8.62" departLane="best" from="-265141045#8" to="-4849595#2"/>
    <trip id="veh24" type="veh_passenger" depart="9.00" departLane="best" from="312666651" to="-9105701#10"/>
    <trip id="veh25" type="veh_passenger" depart="9.37" departLane="best" from="-7949116#7" to="-4212276#4"/>
    <trip id="veh26" type="veh_passenger" depart="9.75" departLane="best" departSpeed="max" from="-4674862#1" to="61429670#0"/>
    <trip id="veh27" type="veh_passenger" depart="10.12" departLane="best" from="33024556#0" to="30775350#6"/>
    <trip id="veh28" type="veh_passenger" depart="10.50" departLane="best" from="-35154259#1" to="41789165#0"/>
    <trip id="veh29" type="veh_passenger" depart="10.87" departLane="best" from="-34121685#3" to="127701248#0"/>
    <trip id="veh30" type="veh_passenger" depart="11.24" departLane="best" from="83786306#0" to="334951836#0"/>
    <trip id="veh31" type="veh_passenger" depart="11.62" departLane="best" departSpeed="max" from="256259849" to="367539588"/>
    <trip id="veh32" type="veh_passenger" depart="11.99" departLane="best" departSpeed="max" from="4833761#0" to="44660631"/>
    <trip id="veh33" type="veh_passenger" depart="12.37" departLane="best" from="-439373456" to="-216568140#1"/>
    <trip id="veh34" type="veh_passenger" depart="12.74" departLane="best" departSpeed="max" from="-5179344#3" to="-4674805#7"/>
    <trip id="veh35" type="veh_passenger" depart="13.12" departLane="best" from="-4268284#2" to="62058056#0"/>
    <trip id="veh36" type="veh_passenger" depart="13.49" departLane="best" from="5088500#0" to="-551658570#1"/>
    <trip id="veh37" type="veh_passenger" depart="13.87" departLane="best" from="332469267#5" to="149582474#0"/>
    <trip id="veh38" type="veh_passenger" depart="14.24" departLane="best" from="551965784" to="219860817#0"/>
    <trip id="veh39" type="veh_passenger" depart="14.62" departLane="best" departSpeed="max" from="-465607510#2" to="-446840767#1"/>
    <trip id="veh40" type="veh_passenger" depart="14.99" departLane="best" from="25795211#0" to="-460758055"/>
    <trip id="veh41" type="veh_passenger" depart="15.37" departLane="best" from="278877431#0" to="538879461#0"/>
    <trip id="veh42" type="veh_passenger" depart="15.74" departLane="best" from="133595017" to="-4281713#3"/>
    <trip id="veh43" type="veh_passenger" depart="16.12" departLane="best" from="98243456" to="23913264#0"/>
    <trip id="veh44" type="veh_passenger" depart="16.49" departLane="best" departSpeed="max" from="-25795299#2" to="-22372219#17"/>
    <trip id="veh45" type="veh_passenger" depart="16.87" departLane="best" from="-280655994#1" to="329385932"/>
    <trip id="veh46" type="veh_passenger" depart="17.24" departLane="best" from="444857669" to="203963763#0"/>
    <trip id="veh47" type="veh_passenger" depart="17.62" departLane="best" from="-232935026#5" to="133595019#0"/>
    <trip id="veh48" type="veh_passenger" depart="17.99" departLane="best" from="98243453#1" to="24603744#0"/>
    <trip id="veh49" type="veh_passenger" depart="18.37" departLane="best" from="7502141" to="5078693#8"/>
    <trip id="veh50" type="veh_passenger" depart="18.74" departLane="best" departSpeed="max" from="-14876402#1" to="41166597#0"/>
    <trip id="veh51" type="veh_passenger" depart="19.12" departLane="best" from="35154259#0" to="253255498"/>
    <trip id="veh52" type="veh_passenger" depart="19.49" departLane="best" from="-4674805#7" to="335458843#0"/>
    <trip id="veh53" type="veh_passenger" depart="19.87" departLane="best" from="-284730113#3" to="216566629#1"/>
    <trip id="veh55" type="veh_passenger" depart="20.62" departLane="best" departSpeed="max" from="5088499#0" to="-461110435#1"/>
    <trip id="veh56" type="veh_passenger" depart="20.99" departLane="best" departSpeed="max" from="22795629#0" to="-365986906#2"/>
    <trip id="veh57" type="veh_passenger" depart="21.37" departLane="best" from="551963215#3" to="5090395#0"/>
    <trip id="veh58" type="veh_passenger" depart="21.74" departLane="best" departSpeed="max" from="-5078702#3" to="332803098#0"/>
    <trip id="veh59" type="veh_passenger" depart="22.11" departLane="best" from="301632634#2" to="-33651798#1"/>
    <trip id="veh60" type="veh_passenger" depart="22.49" departLane="best" from="4281698#0" to="253257582#2"/>
    <trip id="veh61" type="veh_passenger" depart="22.86" departLane="best" from="435298981" to="24657278"/>
    <trip id="veh62" type="veh_passenger" depart="23.24" departLane="best" from="-10070564#5" to="-5686849#2"/>
    <trip id="veh63" type="veh_passenger" depart="23.61" departLane="best" departSpeed="max" from="-15806261#5" to="58741180"/>
    <trip id="veh64" type="veh_passenger" depart="23.99" departLane="best" from="50886938#1" to="4840003#0"/>
    <trip id="veh65" type="veh_passenger" depart="24.36" departLane="best" departSpeed="max" from="-5135721#1" to="-23143718#1"/>
    <trip id="veh66" type="veh_passenger" depart="24.74" departLane="best" from="5088679#0" to="64370254#4"/>
    <trip id="veh67" type="veh_passenger" depart="25.11" departLane="best" from="-248101310#6" to="22758498#7"/>
    <trip id="veh68" type="veh_passenger" depart="25.49" departLane="best" departSpeed="max" from="-23689279#1" to="435615224#0"/>
    <trip id="veh69" type="veh_passenger" depart="25.86" departLane="best" from="428965775" to="-30326665#1"/>
    <trip id="veh70" type="veh_passenger" depart="26.24" departLane="best" from="219930006" to="25847025"/>
    <trip id="veh71" type="veh_passenger" depart="26.61" departLane="best" departSpeed="max" from="-465607510#2" to="5090485#0"/>
    <trip id="veh72" type="veh_passenger" depart="26.99" departLane="best" from="15807909#0" to="-4268290#1"/>
    <trip id="veh73" type="veh_passenger" depart="27.36" departLane="best" from="24382070#0" to="41789358#0"/>
    <trip id="veh74" type="veh_passenger" depart="27.74" departLane="best" from="-41166621" to="-542543899#2"/>
    <trip id="veh75" type="veh_passenger" depart="28.11" departLane="best" from="98243452" to="340934468#0"/>
    <trip id="veh76" type="veh_passenger" depart="28.49" departLane="best" departSpeed="max" from="19930026" to="24221133#0"/>
    <trip id="veh77" type="veh_passenger" depart="28.86" departLane="best" from="-297681730" to="-4301740#3"/>
    <trip id="veh78" type="veh_passenger" depart="29.24" departLane="best" from="-5914891#0" to="298236444#0"/>
    <trip id="veh79" type="veh_passenger" depart="29.61" departLane="best" from="-44073335#1" to="-42965996#5"/>
    <trip id="veh80" type="veh_passenger" depart="29.99" departLane="best" from="-237888004#5" to="33024562#0"/>
    <trip id="veh81" type="veh_passenger" depart="30.36" departLane="best" from="-439373456" to="545590080#0"/>
    <trip id="veh82" type="veh_passenger" depart="30.74" departLane="best" from="4952039#0" to="-240404486#1"/>
    <trip id="veh83" type="veh_passenger" depart="31.11" departLane="best" from="-446784162#1" to="35155500"/>
    <trip id="veh84" type="veh_passenger" depart="31.49" departLane="best" departSpeed="max" from="-4281302#3" to="-30861346#4"/>
    <trip id="veh85" type="veh_passenger" depart="31.86" departLane="best" from="59259509" to="284730112#0"/>
    <trip id="veh86" type="veh_passenger" depart="32.24" departLane="best" from="219860803" to="446994465#0"/>
    <trip id="veh87" type="veh_passenger" depart="32.61" departLane="best" from="448090102#1" to="-3996287"/>
    <trip id="veh88" type="veh_passenger" depart="32.99" departLane="best" from="-259669510#5" to="216563855"/>
    <trip id="veh89" type="veh_passenger" depart="33.36" departLane="best" from="15807912#0" to="220189045#1"/>
    <trip id="veh90" type="veh_passenger" depart="33.73" departLane="best" from="4006149" to="35565362#0"/>
    <trip id="veh91" type="veh_passenger" depart="34.11" departLane="best" from="82485377#1" to="-265141045#3"/>
    <trip id="veh92" type="veh_passenger" depart="34.48" departLane="best" from="141001279#1" to="-68169296#4"/>
    <trip id="veh93" type="veh_passenger" depart="34.86" departLane="best" from="4958320#0" to="-446988079#2"/>
    <trip id="veh94" type="veh_passenger" depart="35.23" departLane="best" from="-3996272#2" to="218811509#0"/>
    <trip id="veh95" type="veh_passenger" depart="35.61" departLane="best" departSpeed="max" from="157332776#0" to="-4853771#5"/>
    <trip id="veh96" type="veh_passenger" depart="35.98" departLane="best" from="-45473333#2" to="5686826#0"/>
    <trip id="veh97" type="veh_passenger" depart="36.36" departLane="best" from="204496898#1" to="5078695"/>
    <trip id="veh98" type="veh_passenger" depart="36.73" departLane="best" from="251675772" to="-22758498#1"/>
    <trip id="veh99" type="veh_passenger" depart="37.11" departLane="best" from="98243535" to="4849594#8"/>
    <trip id="veh100" type="veh_passenger" depart="37.48" departLane="best" from="71372829#0" to="5686880#0"/>
    <trip id="veh101" type="veh_passenger" depart="37.86" departLane="best" from="4847932#0" to="-34551387#1"/>
    <trip id="veh102" type="veh_passenger" depart="38.23" departLane="best" departSpeed="max" from="220923298#0" to="-4281300#4"/>
    <trip id="veh103" type="veh_passenger" depart="38.61" departLane="best" from="133658685#0" to="-23209216#5"/>
    <trip id="veh104" type="veh_passenger" depart="38.98" departLane="best" from="-83782174#1" to="83070600#0"/>
    <trip id="veh105" type="veh_passenger" depart="39.36" departLane="best" departSpeed="max" from="-465607510#2" to="446991476#0"/>
    <trip id="veh107" type="veh_passenger" depart="40.11" departLane="best" from="683261308#0" to="98243453#0"/>
    <trip id="veh108" type="veh_passenger" depart="40.48" departLane="best" from="25365934#0" to="41112695#0"/>
    <trip id="veh109" type="veh_passenger" depart="40.86" departLane="best" departSpeed="max" from="-335461294#7" to="-50886984#1"/>
    <trip id="veh110" type="veh_passenger" depart="41.23" departLane="best" from="711145231#6" to="292603459#0"/>
    <trip id="veh111" type="veh_passenger" depart="41.61" departLane="best" from="244751317#2" to="42966001#0"/>
    <trip id="veh112" type="veh_passenger" depart="41.98" departLane="best" from="-22952575#1" to="296783428#2"/>
    <trip id="veh113" type="veh_passenger" depart="42.36" departLane="best" from="228017308#0" to="5000897#0"/>
    <trip id="veh114" type="veh_passenger" depart="42.73" departLane="best" departSpeed="max" from="-337285738#2" to="690971697#0"/>
    <trip id="veh115" type="veh_passenger" depart="43.11" departLane="best" departSpeed="max" from="-24221166" to="-375624671#0"/>
    <trip id="veh116" type="veh_passenger" depart="43.48" departLane="best" from="28823581#7" to="35565623#0"/>
    <trip id="veh117" type="veh_passenger" depart="43.86" departLane="best" from="-445870383#2" to="-297681827#1"/>
    <trip id="veh118" type="veh_passenger" depart="44.23" departLane="best" from="5179231#0" to="-446828222"/>
    <trip id="veh119" type="veh_passenger" depart="44.60" departLane="best" from="28823581#3" to="312666585#1"/>
    <trip id="veh120" type="veh_passenger" depart="44.98" departLane="best" from="153718271#0" to="293192367#0"/>
    <trip id="veh121" type="veh_passenger" depart="45.35" departLane="best" departSpeed="max" from="23689295#0" to="5941200#0"/>
    <trip id="veh122" type="veh_passenger" depart="45.73" departLane="best" from="-41680074#9" to="407507549#0"/>
    <trip id="veh123" type="veh_passenger" depart="46.10" departLane="best" from="-446793526#2" to="149582476#0"/>
    <trip id="veh124" type="veh_passenger" depart="46.48" departLane="best" from="34398658" to="-5090561#3"/>
    <trip id="veh125" type="veh_passenger" depart="46.85" departLane="best" departSpeed="max" from="-5179377#1" to="4301730#1"/>
    <trip id="veh126" type="veh_passenger" depart="47.23" departLane="best" departSpeed="max" from="-23960360#1" to="219860807#0"/>
    <trip id="veh127" type="veh_passenger" depart="47.60" departLane="best" from="98243457#0-AddedOffRampEdge" to="98243453#1-AddedOffRampEdge"/>
    <trip id="veh128" type="veh_passenger" depart="47.98" departLane="best" from="-23973402#5" to="-42704033#1"/>
    <trip id="veh129" type="veh_passenger" depart="48.35" departLane="best" departSpeed="max" from="-465607510#2" to="5916451#0"/>
    <trip id="veh130" type="veh_passenger" depart="48.73" departLane="best" from="5090473#0" to="5150047#3"/>
    <trip id="veh131" type="veh_passenger" depart="49.10" departLane="best" from="4674678#0" to="3998144"/>
    <trip id="veh132" type="veh_passenger" depart="49.48" departLane="best" from="302008728#4" to="83070923#0"/>
    <trip id="veh133" type="veh_passenger" depart="49.85" departLane="best" from="33111442#0" to="-143516297#6"/>
    <trip id="veh134" type="veh_passenger" depart="50.23" departLane="best" from="456341916#0-AddedOnRampEdge" to="-5090553#2"/>
    <trip id="veh135" type="veh_passenger" depart="50.60" departLane="best" departSpeed="max" from="33910431#0" to="61760482#0"/>
    <trip id="veh136" type="veh_passenger" depart="50.98" departLane="best" from="-30979258#1" to="-293192088#4"/>
    <trip id="veh137" type="veh_passenger" depart="51.35" departLane="best" departSpeed="max" from="-278877435#9" to="259669510#8"/>
    <trip id="veh138" type="veh_passenger" depart="51.73" departLane="best" departSpeed="max" from="-4828144" to="30679732#0"/>
    <trip id="veh139" type="veh_passenger" depart="52.10" departLane="best" departSpeed="max" from="3996307" to="-41680073#2"/>
    <trip id="veh140" type="veh_passenger" depart="52.48" departLane="best" departSpeed="max" from="311034461" to="-4651995#1"/>
    <trip id="veh141" type="veh_passenger" depart="52.85" departLane="best" from="221111576#7" to="545590080#0"/>
    <trip id="veh142" type="veh_passenger" depart="53.23" departLane="best" from="4835155#2" to="-259669510#11"/>
    <trip id="veh143" type="veh_passenger" depart="53.60" departLane="best" from="15807912#0" to="-4847595#2"/>
    <trip id="veh144" type="veh_passenger" depart="53.98" departLane="best" departSpeed="max" from="-11214397" to="444741638#0"/>
    <trip id="veh145" type="veh_passenger" depart="54.35" departLane="best" from="4167750#0" to="259669510#15"/>
    <trip id="veh146" type="veh_passenger" depart="54.73" departLane="best" from="172947835#4" to="-14642455#5"/>
    <trip id="veh147" type="veh_passenger" depart="55.10" departLane="best" from="-240404486#1" to="5179222#9"/>
    <trip id="veh148" type="veh_passenger" depart="55.47" departLane="best" from="538879525#0" to="25822593#0"/>
    <trip id="veh149" type="veh_passenger" depart="55.85" departLane="best" from="4674805#4" to="293192360#4"/>
    <trip id="veh150" type="veh_passenger" depart="56.22" departLane="best" from="-33030910#1" to="-302122269#1"/>
    <trip id="veh151" type="veh_passenger" depart="56.60" departLane="best" departSpeed="max" from="-5135723#2" to="538879484#0"/>
    <trip id="veh152" type="veh_passenger" depart="56.97" departLane="best" departSpeed="max" from="446327327#0" to="5078693#8"/>
    <trip id="veh153" type="veh_passenger" depart="57.35" departLane="best" from="5213383#0" to="-42262994#2"/>
    <trip id="veh154" type="veh_passenger" depart="57.72" departLane="best" from="-45473333#10" to="-26696964#2"/>
    <trip id="veh155" type="veh_passenger" depart="58.10" departLane="best" from="435612517#10" to="5179232#0"/>
    <trip id="veh156" type="veh_passenger" depart="58.47" departLane="best" from="146291948#0" to="312982124"/>
    <trip id="veh157" type="veh_passenger" depart="58.85" departLane="best" departSpeed="max" from="-335461294#7" to="58741184#0-AddedOffRampEdge"/>
    <trip id="veh158" type="veh_passenger" depart="59.22" departLane="best" from="499225116#0" to="7912478#0"/>
    <trip id="veh159" type="veh_passenger" depart="59.60" departLane="best" from="449549345" to="5150058#0"/>
    <trip id="veh160" type="veh_passenger" depart="59.97" departLane="best" from="-200694048#9" to="426025038#0"/>
    <trip id="veh161" type="veh_passenger" depart="60.35" departLane="best" from="-553282767" to="58869729#0"/>
    <trip id="veh162" type="veh_passenger" depart="60.72" departLane="best" from="446823311" to="507986356"/>
    <trip id="veh163" type="veh_passenger" depart="61.10" departLane="best" from="449549345" to="-4652077#3"/>
    <trip id="veh164" type="veh_passenger" depart="61.47" departLane="best" from="439423519#0" to="-28156056#1"/>
    <trip id="veh165" type="veh_passenger" depart="61.85" departLane="best" from="5074694#0" to="5074636"/>
    <trip id="veh166" type="veh_passenger" depart="62.22" departLane="best" from="-4321249#3" to="4674795#0"/>
    <trip id="veh167" type="veh_passenger" depart="62.60" departLane="best" from="21674222#0" to="-5179330#3"/>
    <trip id="veh168" type="veh_passenger" depart="62.97" departLane="best" from="445873818#3" to="-435608887#5"/>
    <trip id="veh169" type="veh_passenger" depart="63.35" departLane="best" from="-19930038" to="-3998173#1"/>
    <trip id="veh170" type="veh_passenger" depart="63.72" departLane="best" from="-551963215#1" to="5080129#0"/>
    <trip id="veh171" type="veh_passenger" depart="64.10" departLane="best" from="707964265#0" to="-4856214#3"/>
    <trip id="veh172" type="veh_passenger" depart="64.47" departLane="best" from="327522509#0" to="15092986#4"/>
    <trip id="veh173" type="veh_passenger" depart="64.85" departLane="best" from="8095758#0" to="253255130#0"/>
    <trip id="veh174" type="veh_passenger" depart="65.22" departLane="best" from="61429673#0" to="-293192087#4"/>
    <trip id="veh175" type="veh_passenger" depart="65.60" departLane="best" from="7502120#0" to="-365883396#2"/>
    <trip id="veh176" type="veh_passenger" depart="65.97" departLane="best" from="69341416" to="-4652055#1"/>
    <trip id="veh177" type="veh_passenger" depart="66.34" departLane="best" from="-280025734#0" to="216566629#0"/>
    <trip id="veh178" type="veh_passenger" depart="66.72" departLane="best" from="4006142#0" to="-547861654"/>
    <trip id="veh179" type="veh_passenger" depart="67.09" departLane="best" from="299158323#0" to="23973343#0"/>
    <trip id="veh180" type="veh_passenger" depart="67.47" departLane="best" from="-98567762#0" to="28823581#0"/>
    <trip id="veh181" type="veh_passenger" depart="67.84" departLane="best" from="-458048656" to="4005317#1"/>
    <trip id="veh182" type="veh_passenger" depart="68.22" departLane="best" departSpeed="max" from="-10361129#1" to="5686852#0"/>
    <trip id="veh183" type="veh_passenger" depart="68.59" departLane="best" from="24267451" to="41166498#2"/>
    <trip id="veh184" type="veh_passenger" depart="68.97" departLane="best" from="4167752#8" to="352799162#0"/>
    <trip id="veh185" type="veh_passenger" depart="69.34" departLane="best" departSpeed="max" from="-737178943#2" to="-24039505#1"/>
    <trip id="veh186" type="veh_passenger" depart="69.72" departLane="best" departSpeed="max" from="339397438#0" to="-6038443#2"/>
    <trip id="veh187" type="veh_passenger" depart="70.09" departLane="best" from="-5179328#2" to="496548134#0"/>
    <trip id="veh188" type="veh_passenger" depart="70.47" departLane="best" departSpeed="max" from="3996330" to="-5103829#3"/>
    <trip id="veh189" type="veh_passenger" depart="70.84" departLane="best" departSpeed="max" from="-5150056#2" to="162582242#0-AddedOnRampEdge"/>
    <trip id="veh190" type="veh_passenger" depart="71.22" departLane="best" from="141001279#0" to="-5088499#1"/>
    <trip id="veh191" type="veh_passenger" depart="71.59" departLane="best" from="-302007925#1" to="200694047#0"/>
    <trip id="veh192" type="veh_passenger" depart="71.97" departLane="best" from="6147946" to="36355963#0"/>
    <trip id="veh193" type="veh_passenger" depart="72.34" departLane="best" from="538879500#0" to="310302228#0"/>
    <trip id="veh194" type="veh_passenger" depart="72.72" departLane="best" departSpeed="max" from="-5088613#3" to="25846414#0"/>
    <trip id="veh195" type="veh_passenger" depart="73.09" departLane="best" from="-10070564#3" to="-4958319"/>
    <trip id="veh196" type="veh_passenger" depart="73.47" departLane="best" from="184503678#2" to="293191155#0"/>
    <trip id="veh197" type="veh_passenger" depart="73.84" departLane="best" from="33243155#13" to="220181422"/>
    <trip id="veh198" type="veh_passenger" depart="74.22" departLane="best" from="204318936#0" to="-4281300#4"/>
    <trip id="veh199" type="veh_passenger" depart="74.59" departLane="best" from="219860807#0" to="538882650#0"/>
    <trip id="veh200" type="veh_passenger" depart="74.97" departLane="best" departSpeed="max" from="446327327#0" to="-35154257#1"/>
    <trip id="veh201" type="veh_passenger" depart="75.34" departLane="best" from="-24657278" to="24159276#0"/>
    <trip id="veh202" type="veh_passenger" depart="75.72" departLane="best" from="310302228#0" to="-633312117#1"/>
    <trip id="veh203" type="veh_passenger" depart="76.09" departLane="best" from="456565901#0" to="4301725#0"/>
    <trip id="veh204" type="veh_passenger" depart="76.47" departLane="best" from="34545359#5" to="-4301739#3"/>
    <trip id="veh205" type="veh_passenger" depart="76.84" departLane="best" from="-407507553#3" to="-204318934#1"/>
    <trip id="veh206" type="veh_passenger" depart="77.21" departLane="best" from="-446991478" to="222151618#0"/>
    <trip id="veh207" type="veh_passenger" depart="77.59" departLane="best" from="4849591#1" to="-24162558#1"/>
    <trip id="veh208" type="veh_passenger" depart="77.96" departLane="best" from="149593029#1" to="33002814"/>
    <trip id="veh209" type="veh_passenger" depart="78.34" departLane="best" from="-3998177#1" to="387956367#0"/>
    <trip id="veh210" type="veh_passenger" depart="78.71" departLane="best" from="224315808#0" to="-446810243#2"/>
    <trip id="veh211" type="veh_passenger" depart="79.09" departLane="best" from="33406396#0" to="-124690744#1"/>
    <trip id="veh212" type="veh_passenger" depart="79.46" departLane="best" from="4212296#1" to="44120615#0"/>
    <trip id="veh213" type="veh_passenger" depart="79.84" departLane="best" from="-278877431#1" to="207223272#0"/>
    <trip id="veh214" type="veh_passenger" depart="80.21" departLane="best" from="-354354332#3" to="686198241#0"/>
    <trip id="veh215" type="veh_passenger" depart="80.59" departLane="best" from="234362960#0" to="-22758431#4"/>
    <trip id="veh216" type="veh_passenger" depart="80.96" departLane="best" from="-45155111#3" to="4976754#0"/>
    <trip id="veh217" type="veh_passenger" depart="81.34" departLane="best" from="216696534" to="460745483#0"/>
    <trip id="veh218" type="veh_passenger" depart="81.71" departLane="best" from="34121613#0" to="83782174#0"/>
    <trip id="veh219" type="veh_passenger" depart="82.09" departLane="best" from="28823582#5" to="670070533#0"/>
    <trip id="veh220" type="veh_passenger" depart="82.46" departLane="best" from="5179253#5" to="30979426#0"/>
    <trip id="veh221" type="veh_passenger" depart="82.84" departLane="best" from="3996329#0" to="23502714#3"/>
    <trip id="veh222" type="veh_passenger" depart="83.21" departLane="best" from="4663340#1-AddedOnRampEdge" to="25846414#0"/>
    <trip id="veh223" type="veh_passenger" depart="83.59" departLane="best" from="5179355#0" to="4281675#1"/>
    <trip id="veh224" type="veh_passenger" depart="83.96" departLane="best" from="219905382#0" to="-457893706#4"/>
    <trip id="veh225" type="veh_passenger" depart="84.34" departLane="best" from="-449218662#1" to="33243155#0"/>
    <trip id="veh226" type="veh_passenger" depart="84.71" departLane="best" from="428965775" to="24221174#2"/>
    <trip id="veh227" type="veh_passenger" depart="85.09" departLane="best" from="30775350#8" to="-4840004"/>
    <trip id="veh228" type="veh_passenger" depart="85.46" departLane="best" from="-24162504#6" to="-4952037#3"/>
    <trip id="veh229" type="veh_passenger" depart="85.84" departLane="best" departSpeed="max" from="-4826015#1" to="-551976979#3"/>
    <trip id="veh230" type="veh_passenger" depart="86.21" departLane="best" from="24382120#0" to="-312669014#4"/>
    <trip id="veh231" type="veh_passenger" depart="86.59" departLane="best" departSpeed="max" from="-44120052#2" to="376319751#6"/>
    <trip id="veh232" type="veh_passenger" depart="86.96" departLane="best" from="37531952#0" to="-23474916#2"/>
    <trip id="veh233" type="veh_passenger" depart="87.34" departLane="best" from="14642455#0" to="25757055#0"/>
    <trip id="veh234" type="veh_passenger" depart="87.71" departLane="best" from="14974349#0" to="-4212249#2"/>
    <trip id="veh235" type="veh_passenger" depart="88.09" departLane="best" from="153813489#0" to="545430590#1"/>
    <trip id="veh236" type="veh_passenger" depart="88.46" departLane="best" from="278430754" to="381084334#0"/>
    <trip id="veh237" type="veh_passenger" depart="88.83" departLane="best" departSpeed="max" from="49138580#0" to="439423519#0"/>
    <trip id="veh238" type="veh_passenger" depart="89.21" departLane="best" from="-83786304#1" to="-126742589#1"/>
    <trip id="veh239" type="veh_passenger" depart="89.58" departLane="best" from="-68169296#4" to="4301744#0"/>
    <trip id="veh240" type="veh_passenger" depart="89.96" departLane="best" departSpeed="max" from="4860305#0" to="679843361#0"/>
    <trip id="veh241" type="veh_passenger" depart="90.33" departLane="best" from="15225004#0" to="42965996#0"/>
    <trip id="veh242" type="veh_passenger" depart="90.71" departLane="best" from="24657280" to="306467643#0"/>
    <trip id="veh243" type="veh_passenger" depart="91.08" departLane="best" departSpeed="max" from="-4301735#2" to="-4281713#3"/>
    <trip id="veh244" type="veh_passenger" depart="91.46" departLane="best" from="195670579" to="-216566625"/>
    <trip id="veh245" type="veh_passenger" depart="91.83" departLane="best" from="-5686883#5" to="366749405#0"/>
    <trip id="veh246" type="veh_passenger" depart="92.21" departLane="best" from="141001902#0" to="-34551384#3"/>
    <trip id="veh247" type="veh_passenger" depart="92.58" departLane="best" from="219144643#0" to="-302122272#1"/>
    <trip id="veh248" type="veh_passenger" depart="92.96" departLane="best" from="30679731" to="-207223272#4"/>
    <trip id="veh249" type="veh_passenger" depart="93.33" departLane="best" from="121948131#1" to="27646417#0"/>
    <trip id="veh250" type="veh_passenger" depart="93.71" departLane="best" from="-207223272#16" to="335461294#4"/>